[Format]      =  4.0
[Frequency]   =  0
[Precision]   =  1e-008
[MinAngle]    =  30
[DoSmartMesh] =  1
[Depth]       =  4
[LengthUnits] =  centimeters
[ProblemType] =  planar
[Coordinates] =  cartesian
[ACSolver]    =  0
[PrevType]    =  0
[PrevSoln]    =  ""
[Comment]     =  "Add comments here."
[PointProps]   = 0
[BdryProps]   = 0
[BlockProps]  = 5
  <BeginBlock>
    <BlockName> = "Air"
    <Mu_x> = 1
    <Mu_y> = 1
    <H_c> = 0
    <H_cAngle> = 0
    <J_re> = 0
    <J_im> = 0
    <Sigma> = 0
    <d_lam> = 0
    <Phi_h> = 0
    <Phi_hx> = 0
    <Phi_hy> = 0
    <LamType> = 0
    <LamFill> = 1
    <NStrands> = 0
    <WireD> = 0
    <BHPoints> = 0
  <EndBlock>
  <BeginBlock>
    <BlockName> = "N35"
    <Mu_x> = 1.05
    <Mu_y> = 1.05
    <H_c> = 905659
    <H_cAngle> = 0
    <J_re> = 0
    <J_im> = 0
    <Sigma> = 0.66700000000000004
    <d_lam> = 0
    <Phi_h> = 0
    <Phi_hx> = 0
    <Phi_hy> = 0
    <LamType> = 0
    <LamFill> = 1
    <NStrands> = 0
    <WireD> = 0
    <BHPoints> = 0
  <EndBlock>
  <BeginBlock>
    <BlockName> = "12 AWG"
    <Mu_x> = 1
    <Mu_y> = 1
    <H_c> = 0
    <H_cAngle> = 0
    <J_re> = 0
    <J_im> = 0
    <Sigma> = 58
    <d_lam> = 0
    <Phi_h> = 0
    <Phi_hx> = 0
    <Phi_hy> = 0
    <LamType> = 3
    <LamFill> = 1
    <NStrands> = 1
    <WireD> = 2.0530176819291301
    <BHPoints> = 0
  <EndBlock>
  <BeginBlock>
    <BlockName> = "Pure Iron"
    <Mu_x> = 14872
    <Mu_y> = 14872
    <H_c> = 0
    <H_cAngle> = 0
    <J_re> = 0
    <J_im> = 0
    <Sigma> = 10.44
    <d_lam> = 0
    <Phi_h> = 0
    <Phi_hx> = 0
    <Phi_hy> = 0
    <LamType> = 0
    <LamFill> = 1
    <NStrands> = 0
    <WireD> = 0
    <BHPoints> = 21
      0	0
      0.22706499999999999	13.898400000000001
      0.45412999999999998	27.796700000000001
      0.68119499999999999	42.397399999999998
      0.90825999999999996	61.415700000000001
      1.13533	82.382400000000004
      1.36239	144.66900000000001
      1.58935	897.75999999999999
      1.81236	4581.7399999999998
      2.01004	17736.200000000001
      2.1331600000000002	41339.300000000003
      2.1999900000000001	68321.800000000003
      2.2547899999999998	95685.5
      2.2999299999999998	123355
      2.3425099999999999	151083
      2.3787600000000002	178954
      2.4150100000000001	206825
      2.45126	234696
      2.4874999999999998	262568
      2.5237500000000002	290439
      2.5600000000000001	318310
  <EndBlock>
  <BeginBlock>
    <BlockName> = "US Steel Type 2-S 0.024 inch thickness"
    <Mu_x> = 7400
    <Mu_y> = 7400
    <H_c> = 0
    <H_cAngle> = 0
    <J_re> = 0
    <J_im> = 0
    <Sigma> = 6.25
    <d_lam> = 0.60960000000000003
    <Phi_h> = 0
    <Phi_hx> = 0
    <Phi_hy> = 0
    <LamType> = 0
    <LamFill> = 0.97999999999999998
    <NStrands> = 0
    <WireD> = 0
    <BHPoints> = 66
      0	0
      0.0046779999999999999	9.1307220000000004
      0.0064009999999999996	10.474786
      0.008123	12.016997999999999
      0.0098449999999999996	13.786006
      0.014524	15.816824
      0.019202	18.147649000000001
      0.023879999999999998	20.822248999999999
      0.031514	23.893940000000001
      0.048016000000000003	27.429568
      0.067473000000000005	31.492000000000001
      0.10170999999999999	36.179115000000003
      0.15959000000000001	41.607095999999999
      0.26477000000000001	47.948627000000002
      0.39655000000000001	55.320686000000002
      0.53718999999999995	63.850599000000003
      0.67193000000000003	73.677623999999994
      0.79779999999999995	84.980812
      0.90297000000000005	97.936029000000005
      1.0052000000000001	112.84885300000001
      1.0955999999999999	129.96597299999999
      1.1800999999999999	149.637531
      1.2557	172.22162599999999
      1.3165	198.08431300000001
      1.3654999999999999	227.718974
      1.3997999999999999	261.61103100000003
      1.4252	300.436893
      1.4446000000000001	344.928674
      1.4611000000000001	395.961724
      1.4717	454.42731400000002
      1.4852000000000001	521.59868100000006
      1.4987999999999999	598.69336299999998
      1.5094000000000001	687.10396600000001
      1.52	788.557321
      1.5276000000000001	904.87575200000003
      1.5382	1038.486375
      1.5488	1191.832218
      1.5593999999999999	1367.8576479999999
      1.5729	1569.9844969999999
      1.5834999999999999	1801.7937549999999
      1.5941000000000001	2067.9009150000002
      1.6047	2373.239783
      1.6182000000000001	2724.0174019999999
      1.6288	3126.281665
      1.6424000000000001	3588.30863
      1.6589	4119.2497100000001
      1.6754	4728.7337829999997
      1.7083999999999999	6231.5548699999999
      1.7307999999999999	7155.3700669999998
      1.7532000000000001	8216.3768749999999
      1.7756000000000001	9433.9126250000008
      1.8009999999999999	10834.476624999999
      1.8292999999999999	12443.533675000001
      1.8575999999999999	14292.119000000001
      1.8889	16417.634024999999
      1.9232	18861.459050000001
      1.9574	21668.953249999999
      1.9916	24894.229325
      2.0287999999999999	28603.336599999999
      2.0659999999999998	32864.711725000001
      2.0973000000000002	37751.565999999999
      2.1255999999999999	43359.392424999998
      2.1480000000000001	49787.662875000002
      2.1675	57161.314025
      2.181	65610.852975000002
      2.1945999999999999	75308.167125000007
  <EndBlock>
[CircuitProps]  = 6
  <BeginCircuit>
    <CircuitName> = "A"
    <TotalAmps_re> = -1.0612213577415365e-015
    <TotalAmps_im> = 0
    <CircuitType> = 1
  <EndCircuit>
  <BeginCircuit>
    <CircuitName> = "-A"
    <TotalAmps_re> = 1.0612213577415365e-015
    <TotalAmps_im> = 0
    <CircuitType> = 1
  <EndCircuit>
  <BeginCircuit>
    <CircuitName> = "B"
    <TotalAmps_re> = -7.5045691172561675
    <TotalAmps_im> = 0
    <CircuitType> = 1
  <EndCircuit>
  <BeginCircuit>
    <CircuitName> = "-B"
    <TotalAmps_re> = 7.5045691172561675
    <TotalAmps_im> = 0
    <CircuitType> = 1
  <EndCircuit>
  <BeginCircuit>
    <CircuitName> = "C"
    <TotalAmps_re> = 7.5045691172561702
    <TotalAmps_im> = 0
    <CircuitType> = 1
  <EndCircuit>
  <BeginCircuit>
    <CircuitName> = "-C"
    <TotalAmps_re> = -7.5045691172561702
    <TotalAmps_im> = 0
    <CircuitType> = 1
  <EndCircuit>
[NumPoints] = 179
2.9580398915486334	-0.50000000000720735	0	1
2.9580398915486295	0.50000000000721545	0	1
2.458039891548629	0.50000000000721645	0	1
2.4580398915486366	-0.50000000000721134	0	1
2.3117376914852739	1.912032647672782	0	1
2.8117376914924868	1.0460072438758561	0	1
1.8787249895930525	1.6620326476727829	0	1
2.3787249896002725	0.79600724387585409	0	1
1.0460072438758492	2.8117376914924863	0	1
1.9120326476727774	2.3117376914852779	0	1
0.79600724387584432	2.3787249896002676	0	1
1.6620326476727807	1.8787249895930582	0	1
-0.50000000000721545	2.9580398915486295	0	1
0.50000000000720712	2.9580398915486334	0	1
-0.50000000000721601	2.4580398915486281	0	1
0.5000000000072109	2.4580398915486361	0	1
-1.9120326476727825	2.3117376914852703	0	1
-1.0460072438758561	2.8117376914924868	0	1
-1.6620326476727816	1.8787249895930505	0	1
-0.79600724387585309	2.3787249896002711	0	1
-2.8117376914924859	1.0460072438758494	0	1
-2.3117376914852783	1.912032647672778	0	1
-2.3787249896002667	0.79600724387584432	0	1
-1.8787249895930598	1.6620326476727816	0	1
-2.9580398915486321	-0.50000000000721401	0	1
-2.9580398915486326	0.50000000000720646	0	1
-2.4580398915486281	-0.50000000000721601	0	1
-2.4580398915486374	0.50000000000721267	0	1
-2.3117376914852703	-1.9120326476727825	0	1
-2.8117376914924868	-1.0460072438758561	0	1
-1.878724989593052	-1.6620326476727847	0	1
-2.3787249896002711	-0.79600724387585275	0	1
-1.0460072438758454	-2.8117376914924863	0	1
-1.912032647672778	-2.3117376914852792	0	1
-0.79600724387584443	-2.3787249896002689	0	1
-1.6620326476727805	-1.8787249895930587	0	1
0.50000000000721545	-2.9580398915486295	0	1
-0.50000000000720624	-2.9580398915486334	0	1
0.50000000000721667	-2.4580398915486299	0	1
-0.50000000000721134	-2.4580398915486366	0	1
1.9120326476727827	-2.3117376914852712	0	1
1.0460072438758563	-2.8117376914924836	0	1
1.662032647672782	-1.878724989593052	0	1
0.79600724387585364	-2.3787249896002729	0	1
2.8117376914924859	-1.046007243875847	0	1
2.3117376914852779	-1.9120326476727791	0	1
2.3787249896002685	-0.79600724387584432	0	1
1.8787249895930598	-1.6620326476727816	0	1
8	0	0	0
-8	0	0	0
-5	0	0	0
2.9943700614961113	-0.80233903981781429	0	0
4.9582845747266964	0.64452624153505389	0	0
4.9582845747266964	-0.644526241535054	0	0
3.232257562274798	0.74452624153505387	0	0
3.2322575622747975	-0.74452624153505398	0	0
4.732257562274798	0.74452624153505387	0	0
4.732257562274798	-0.74452624153505398	0	0
3.3839728636953645	3.6808596357065002	0	0
4.212559828048497	2.6933881441619234	0	0
3.232257562274798	0.99452624153505387	0	0
4.732257562274798	0.99452624153505387	0	0
3.2322575622747975	-0.99452624153505398	0	0
4.732257562274798	-0.99452624153505398	0	0
1.8367837987430478	2.8395064132097882	0	0
1.9974807011646827	2.6479953024300436	0	0
3.14654736584315	3.6121767169598527	0	0
2.9858504634215151	3.8036878277395973	0	0
2.954625187455123	1.5073149222616715	0	0
3.115322089876758	1.3158038114819268	0	0
4.2643887545552257	2.2799852260117359	0	0
4.1036918521335908	2.4714963367914806	0	0
0.22626264107180183	4.9948778981327671	0	0
1.4957315204388819	4.771036283530611	0	0
-3.0373183859384092	3.971737280138314	0	0
-1.9209661887882854	4.6162635216733676	0	0
-0.41814151779863939	3.3558499765450645	0	0
-0.17193957954558736	3.3124379321283319	0	0
0.088532686954808315	4.7896495616466437	0	0
-0.15766925129824372	4.8330616060633762	0	0
1.2944908504239345	3.0538666819927891	0	0
1.5406927886769863	3.0104546375760566	0	0
1.8011650551773821	4.4876662670943688	0	0
1.5549631169243301	4.5310783115111013	0	0
-2.4774137710370137	2.3019540397368101	0	0
-2.2609074200909038	2.4269540397368101	0	0
-3.0109074200909038	3.7259921454134686	0	0
-3.2274137710370137	3.6009921454134686	0	0
-0.97135014218389293	3.1714802812718634	0	0
-0.75484379123778311	3.2964802812718639	0	0
-1.504843791237783	4.5955183869485232	0	0
-1.7213501421838928	4.4705183869485232	0	0
-4.8797043841342456	1.0901766478241144	0	0
-4.4388224691202973	2.3014897539708463	0	0
-4.4388224691203	-2.3014897539708397	0	0
-4.8797043841342465	-1.0901766478241068	0	0
-3.3774765874200341	0.17094822436627144	0	0
-3.2919715515886163	0.40587137956274844	0	0
-4.7015104827674783	0.91890159455125242	0	0
-4.7870155185988956	0.68397843935477542	0	0
-2.7826856079095341	1.8051230098666617	0	0
-2.6971805720781168	2.040046165063139	0	0
-4.1067195032569792	2.5530763800516429	0	0
-4.1922245390883965	2.3181532248551662	0	0
-2.6971805720781195	-2.040046165063135	0	0
-2.7826856079095368	-1.8051230098666577	0	0
-4.1922245390884001	-2.3181532248551595	0	0
-4.1067195032569828	-2.5530763800516367	0	0
-3.2919715515886168	-0.40587137956274355	0	0
-3.3774765874200341	-0.17094822436626611	0	0
-4.7870155185988974	-0.68397843935476832	0	0
-4.7015104827674801	-0.91890159455124554	0	0
-1.9209661887882898	-4.6162635216733658	0	0
-3.0373183859384127	-3.9717372801383108	0	0
1.4957315204388775	-4.7710362835306119	0	0
0.22626264107179694	-4.9948778981327662	0	0
-0.75484379123778622	-3.2964802812718634	0	0
-0.97135014218389581	-3.171480281271863	0	0
-1.7213501421838968	-4.4705183869485197	0	0
-1.5048437912377872	-4.5955183869485206	0	0
-2.2609074200909061	-2.4269540397368079	0	0
-2.4774137710370154	-2.3019540397368075	0	0
-3.2274137710370168	-3.6009921454134646	0	0
-3.0109074200909069	-3.7259921454134655	0	0
1.5406927886769832	-3.0104546375760579	0	0
1.2944908504239314	-3.0538666819927904	0	0
1.5549631169243257	-4.5310783115111031	0	0
1.8011650551773779	-4.4876662670943706	0	0
-0.17193957954559014	-3.312437932128331	0	0
-0.4181415177986425	-3.3558499765450631	0	0
-0.15766925129824849	-4.8330616060633771	0	0
0.088532686954803763	-4.7896495616466446	0	0
4.212559828048497	-2.6933881441619234	0	0
3.3839728636953645	-3.6808596357065002	0	0
3.115322089876758	-1.3158038114819268	0	0
2.954625187455123	-1.5073149222616715	0	0
4.1036918521335908	-2.4714963367914806	0	0
4.2643887545552257	-2.2799852260117359	0	0
1.9974807011646825	-2.6479953024300436	0	0
1.8367837987430478	-2.8395064132097882	0	0
2.9858504634215151	-3.8036878277395973	0	0
3.14654736584315	-3.6121767169598527	0	0
6	0	0	0
-6	0	0	0
3.232257562274798	0.64452624153505389	0	0
3.2322575622747975	-0.644526241535054	0	0
1.7780869526882428	2.5393713372958744	0	0
2.0617594621333364	2.5713908581181459	0	0
2.8095541398136143	1.3101166113961678	0	0
2.8903464264864693	1.5839193665735691	0	0
-0.27018280251774007	3.0882035640844108	0	0
-0.073458804244366571	3.2950731143616387	0	0
1.3101166113961682	2.8095541398136143	0	0
1.1960100751227136	3.0712314997594823	0	0
-2.192031021678297	2.1920310216782974	0	0
-2.1743048797124604	2.4769540397368099	0	0
-0.80233903981781363	2.9943700614961113	0	0
-1.0579526825623367	3.1214802812718641	0	0
-3.0882035640844112	0.27018280251774096	0	0
-3.25776953725605	0.49984064164133724	0	0
-2.5393713372958739	1.778086952688243	0	0
-2.8168876222421022	1.7111537477880696	0	0
-2.5393713372958748	-1.7780869526882426	0	0
-2.8168876222421027	-1.7111537477880687	0	0
-3.0882035640844103	-0.27018280251773952	0	0
-3.25776953725605	-0.49984064164133579	0	0
-0.80233903981781496	-2.9943700614961113	0	0
-1.057952682562338	-3.1214802812718636	0	0
-2.1920310216782974	-2.1920310216782966	0	0
-2.1743048797124609	-2.4769540397368091	0	0
1.3101166113961678	-2.8095541398136152	0	0
1.1960100751227127	-3.0712314997594827	0	0
-0.2701828025177414	-3.0882035640844103	0	0
-0.073458804244367903	-3.2950731143616383	0	0
2.8095541398136143	-1.3101166113961682	0	0
2.8903464264864693	-1.5839193665735691	0	0
1.7780869526882428	-2.5393713372958739	0	0
2.0617594621333364	-2.5713908581181459	0	0
2.9943700614961113	0.80233903981781396	0	0
[NumSegments] = 156
1	0	-1	0	0	1
2	3	-1	0	0	1
2	1	-1	0	0	1
3	0	-1	0	0	1
4	5	-1	0	0	1
6	7	-1	0	0	1
6	4	-1	0	0	1
7	5	-1	0	0	1
8	9	-1	0	0	1
10	11	-1	0	0	1
10	8	-1	0	0	1
11	9	-1	0	0	1
12	13	-1	0	0	1
14	15	-1	0	0	1
14	12	-1	0	0	1
15	13	-1	0	0	1
16	17	-1	0	0	1
18	19	-1	0	0	1
18	16	-1	0	0	1
19	17	-1	0	0	1
20	21	-1	0	0	1
22	23	-1	0	0	1
22	20	-1	0	0	1
23	21	-1	0	0	1
24	25	-1	0	0	1
26	27	-1	0	0	1
26	24	-1	0	0	1
27	25	-1	0	0	1
28	29	-1	0	0	1
30	31	-1	0	0	1
30	28	-1	0	0	1
31	29	-1	0	0	1
32	33	-1	0	0	1
34	35	-1	0	0	1
34	32	-1	0	0	1
35	33	-1	0	0	1
36	37	-1	0	0	1
38	39	-1	0	0	1
38	36	-1	0	0	1
39	37	-1	0	0	1
40	41	-1	0	0	1
42	43	-1	0	0	1
42	40	-1	0	0	1
43	41	-1	0	0	1
44	45	-1	0	0	1
46	47	-1	0	0	1
46	44	-1	0	0	1
47	45	-1	0	0	1
144	52	-1	0	0	0
51	145	-1	0	0	0
145	53	-1	0	0	0
60	54	-1	0	0	0
56	54	-1	0	0	0
60	61	-1	0	0	0
61	56	-1	0	0	0
55	62	-1	0	0	0
63	62	-1	0	0	0
55	57	-1	0	0	0
57	63	-1	0	0	0
64	65	-1	0	0	0
66	65	-1	0	0	0
64	67	-1	0	0	0
67	66	-1	0	0	0
68	69	-1	0	0	0
70	69	-1	0	0	0
68	71	-1	0	0	0
71	70	-1	0	0	0
76	77	-1	0	0	0
78	77	-1	0	0	0
76	79	-1	0	0	0
79	78	-1	0	0	0
80	81	-1	0	0	0
82	81	-1	0	0	0
80	83	-1	0	0	0
83	82	-1	0	0	0
84	85	-1	0	0	0
86	85	-1	0	0	0
84	87	-1	0	0	0
87	86	-1	0	0	0
88	89	-1	0	0	0
90	89	-1	0	0	0
88	91	-1	0	0	0
91	90	-1	0	0	0
96	97	-1	0	0	0
98	97	-1	0	0	0
96	99	-1	0	0	0
99	98	-1	0	0	0
100	101	-1	0	0	0
102	101	-1	0	0	0
100	103	-1	0	0	0
103	102	-1	0	0	0
104	105	-1	0	0	0
106	105	-1	0	0	0
104	107	-1	0	0	0
107	106	-1	0	0	0
108	109	-1	0	0	0
110	109	-1	0	0	0
108	111	-1	0	0	0
111	110	-1	0	0	0
116	117	-1	0	0	0
118	117	-1	0	0	0
116	119	-1	0	0	0
119	118	-1	0	0	0
120	121	-1	0	0	0
122	121	-1	0	0	0
120	123	-1	0	0	0
123	122	-1	0	0	0
124	125	-1	0	0	0
126	125	-1	0	0	0
124	127	-1	0	0	0
127	126	-1	0	0	0
128	129	-1	0	0	0
130	129	-1	0	0	0
128	131	-1	0	0	0
131	130	-1	0	0	0
134	135	-1	0	0	0
136	135	-1	0	0	0
134	137	-1	0	0	0
137	136	-1	0	0	0
138	139	-1	0	0	0
140	139	-1	0	0	0
138	141	-1	0	0	0
141	140	-1	0	0	0
146	147	-1	0	0	0
147	58	-1	0	0	0
148	149	-1	0	0	0
149	59	-1	0	0	0
150	151	-1	0	0	0
151	72	-1	0	0	0
152	153	-1	0	0	0
153	73	-1	0	0	0
154	155	-1	0	0	0
155	74	-1	0	0	0
156	157	-1	0	0	0
157	75	-1	0	0	0
158	159	-1	0	0	0
159	92	-1	0	0	0
160	161	-1	0	0	0
161	93	-1	0	0	0
162	163	-1	0	0	0
163	94	-1	0	0	0
164	165	-1	0	0	0
165	95	-1	0	0	0
166	167	-1	0	0	0
167	112	-1	0	0	0
168	169	-1	0	0	0
169	113	-1	0	0	0
170	171	-1	0	0	0
171	114	-1	0	0	0
172	173	-1	0	0	0
173	115	-1	0	0	0
174	175	-1	0	0	0
175	132	-1	0	0	0
176	177	-1	0	0	0
177	133	-1	0	0	0
178	144	-1	0	0	0
[NumArcSegments] = 35
12	17	10.811863545999998	1	0	0	1	1
16	21	10.811863545999998	1	0	0	1	1
20	25	10.811863546	1	0	0	1	1
24	29	10.811863546000003	1	0	0	1	1
28	33	10.811863546000037	1	0	0	1	1
32	37	10.811863545999994	1	0	0	1	1
36	41	10.811863546	1	0	0	1	1
40	45	10.811863545999998	1	0	0	1	1
44	0	10.811863546	1	0	0	1	1
1	5	10.811863545999989	1	0	0	1	1
4	9	10.811863545999994	1	0	0	1	1
8	13	10.811863545999991	1	0	0	1	1
49	48	180	1	0	0	0	1
48	49	180	1	0	0	0	1
50	95	12.593664607102429	1	0	0	0	1
94	113	25.187329214204947	1	0	0	0	1
112	115	25.187329214204947	1	0	0	0	1
114	133	25.187329214205004	1	0	0	0	1
132	53	25.187329214204958	1	0	0	0	1
52	59	25.187329214204958	1	0	0	0	1
58	73	25.187329214204958	1	0	0	0	1
72	75	25.18732921420494	1	0	0	0	1
74	93	25.187329214204926	1	0	0	0	1
92	50	12.593664607102518	1	0	0	0	1
142	143	180	1	0	0	0	1
143	142	180	1	0	0	0	1
148	146	24	1	0	0	0	1
152	150	24	1	0	0	0	1
156	154	24	1	0	0	0	1
160	158	24	1	0	0	0	1
164	162	24	1	0	0	0	1
168	166	24	1	0	0	0	1
172	170	24	1	0	0	0	1
176	174	24	1	0	0	0	1
51	178	30	1	0	0	0	1
[NumHoles] = 0
[NumBlockLabels] = 34
-5.3899999999999997	-0.02	5	-1	0	0	0	1	0
-7.0499999999999998	0.80000000000000004	1	-1	0	0	0	1	0
2.6300000000000288	0.020000000000000684	2	-1	0	-720	1	1	0
2.310000000000028	1.3200000000000145	2	-1	0	-870	1	1	0
1.2976794919243277	2.2876468119531044	2	-1	0	-660	1	1	0
0.01184646700454417	2.6605186827420826	2	-1	0	-810	1	1	0
-1.3323205080757052	2.2676468119531021	2	-1	0	-600	1	1	0
-2.2981535329954825	1.3405186827420694	2	-1	0	-750	1	1	0
-2.6300000000000301	-0.019999999999999796	2	-1	0	-540	1	1	0
-2.3100000000000271	-1.3200000000000152	2	-1	0	-690	1	1	0
-1.2976794919243277	-2.2876468119531044	2	-1	0	-480	1	1	0
-0.011846467004544836	-2.6605186827420804	2	-1	0	-630	1	1	0
1.3323205080757052	-2.2676468119531039	2	-1	0	-420	1	1	0
2.2981535329954825	-1.3405186827420699	2	-1	0	-570	1	1	0
0	0	5	-1	0	0	1	1	0
-4.1299999999999999	-0.14000000000000001	1	-1	0	0	0	1	0
4	0.85999999999999999	3	-1	1	0	0	100	0
4.0599999999999996	-0.89000000000000001	3	-1	2	0	0	100	0
-2.7447818472546164	3.0341016151377551	3	-1	1	0	0	100	0
-1.2592373906318484	3.9610631393648208	3	-1	2	0	0	100	0
-1.2552181527453818	-3.8941016151377545	3	-1	1	0	0	100	0
-2.8007626093681495	-3.0710631393648211	3	-1	2	0	0	100	0
2.5113804281454883	3.2299486598284783	3	-1	3	0	0	100	0
3.6822214116840701	1.9279381409514589	3	-1	4	0	0	100	0
-4.0529078064037076	0.5599449194267947	3	-1	3	0	0	100	0
-3.5107541128309414	2.224928214401674	3	-1	4	0	0	100	0
1.5415273782582211	-3.7898935792552715	3	-1	3	0	0	100	0
-0.17146729885312695	-4.1528663553531322	3	-1	4	0	0	100	0
3.6169751168063358	-1.9123522176638359	3	-1	5	0	0	100	0
2.5380594664420304	-3.29149724970324	3	-1	6	0	0	100	0
-0.15234195692277663	4.0885684448423918	3	-1	5	0	0	100	0
1.5814905015086034	3.8437725991059954	3	-1	6	0	0	100	0
-3.4646331598835571	-2.176216227178557	3	-1	5	0	0	100	0
-4.1195499679506327	-0.55227534940275702	3	-1	6	0	0	100	0
